                              PSS(R)E Xplore-35.3.3 IEC 60909 SHORT CIRCUIT CURRENTS          THU, JAN 05 2023  12:32



 OPTIONS USED:
     - MAXIMUM FAULT CURRENT CALCULATIONS, IMPEDANCE CORRECTION FACTORS CALCULATED AND APPLIED
     - VOLTAGE FACTOR C=1.05 WHEN BUS BASE kV<=1.0 kV and C=1.1 WHEN BUS BASE kV>1.0 kV
     - SET SYNCHRONOUS/ASYNCHRONOUS MACHINE POWER OUTPUTS TO P=0.0, Q=0.0
     - SET GENERATOR POSITIVE SEQUENCE REACTANCES TO SUBTRANSIENT
     - SET INDUCTION MACHINE POSITIVE SEQUENCE REACTANCES TO SUBTRANSIENT
     - TRANSFORMER TAP RATIOS AND PHASE SHIFT ANGLES UNCHANGED
     - SET LINE CHARGING=0.0 IN +/- SEQUENCES
     - SET LINE/FIXED/SWITCHED SHUNTS=0.0 AND TRANSFORMER MAGNETIZING ADMITTANCE=0.0 IN +/- SEQUENCES
     - LOAD REPRESENTED IN +/-/0 SEQUENCES
     - DC LINES AND FACTS DEVICES BLOCKED
     - IMPEDANCE CORRECTIONS NOT APPLIED TO TRANSFORMER ZERO SEQUENCE IMPEDANCES
     - NUMBER OF NON-CONVENTIONAL SOURCES [GENERATORS]=0
     - NUMBER OF SERIES CAPACITOR BRANCHES WITH MOV PROTECTION ENABLED=0

 For different fault types Total Fault Current (I"k) is determined as below:
     3ph fault = I"k = Ia1
     LG Fault  = I"k = Ia = 3*Ia0
     LLG Fault = I"k = Ib + Ic = 3*Ia0 = 2Ia0 - (Ia1+Ia2)
     LL Fault  = I"k = Ib = -Ic = a^2*Ia1 + a*Ia2

 SCMVA = PU MVA * SBASE = sqrt(3) * I"k (in kA) * bus base kV     [where SBASE=100.0 MVA]

     VOLTAGE FACTOR C= 1.10,   NOMINAL FREQUENCY=50.0 Hz,   BREAKING CURRENT at TIME= 0.100 seconds
                                       <-SCMVA-> <-Sym I''k rms--> <-----ip(B)------> <-----ip(C)------> <DC Ib(C)> <Sym Ib-> <Asym Ib>
                                                    RE(I)    IM(I)     RE(I)    IM(I)     RE(I)    IM(I)        /I/       /I/       /I/
 X------------ BUS ------------X          PU            PU                 PU                 PU                PU        PU        PU
    101     [ALEGRIA     60.000] LLG       0.82   -0.1514   0.8020   -0.3973   2.1050   -0.3341   1.7702     0.0081    0.8162    0.8162
 Note - ip(B) currents include safety factor multiplier (1.15).
 THEVENIN IMPEDANCE, X/R  (PU)     Z+:0.104384+j0.638364, 6.11556  Z-:0.104384+j0.638364, 6.11556  Z0:0.322785+j1.667366, 5.16556

 ---------------------------------------------------------------------------------------------------------------
     VOLTAGE FACTOR C= 1.10,   NOMINAL FREQUENCY=50.0 Hz,   BREAKING CURRENT at TIME= 0.100 seconds
                                       <-SCMVA-> <-Sym I''k rms--> <-----ip(B)------> <-----ip(C)------> <DC Ib(C)> <Sym Ib-> <Asym Ib>
                                                    RE(I)    IM(I)     RE(I)    IM(I)     RE(I)    IM(I)        /I/       /I/       /I/
 X------------ BUS ------------X          PU            PU                 PU                 PU                PU        PU        PU
    102     [ALFARELOS   60.000] LLG       0.79   -0.1509   0.7746   -0.3934   2.0186   -0.3315   1.7009     0.0067    0.7891    0.7892
 Note - ip(B) currents include safety factor multiplier (1.15).
 THEVENIN IMPEDANCE, X/R  (PU)     Z+:0.111979+j0.658505, 5.88062  Z-:0.111979+j0.658505, 5.88062  Z0:0.343967+j1.723046, 5.00933

 ---------------------------------------------------------------------------------------------------------------
     VOLTAGE FACTOR C= 1.10,   NOMINAL FREQUENCY=50.0 Hz,   BREAKING CURRENT at TIME= 0.100 seconds
                                       <-SCMVA-> <-Sym I''k rms--> <-----ip(B)------> <-----ip(C)------> <DC Ib(C)> <Sym Ib-> <Asym Ib>
                                                    RE(I)    IM(I)     RE(I)    IM(I)     RE(I)    IM(I)        /I/       /I/       /I/
 X------------ BUS ------------X          PU            PU                 PU                 PU                PU        PU        PU
    201     [LAVOS 60    60.000] LLG       0.37   -0.1281   0.3429   -0.3624   0.9699   -0.3344   0.8948     0.4802    0.3661    0.6038
 Note - ip(B) currents include safety factor multiplier (1.15).
 THEVENIN IMPEDANCE, X/R  (PU)     Z+:0.001641+j0.415379, 253.17682  Z-:0.001641+j0.415379, 253.17682  Z0:1.576949+j4.014474, 2.54572

 ---------------------------------------------------------------------------------------------------------------
     VOLTAGE FACTOR C= 1.10,   NOMINAL FREQUENCY=50.0 Hz,   BREAKING CURRENT at TIME= 0.100 seconds
                                       <-SCMVA-> <-Sym I''k rms--> <-----ip(B)------> <-----ip(C)------> <DC Ib(C)> <Sym Ib-> <Asym Ib>
                                                    RE(I)    IM(I)     RE(I)    IM(I)     RE(I)    IM(I)        /I/       /I/       /I/
 X------------ BUS ------------X          PU            PU                 PU                 PU                PU        PU        PU
    202     [ANTANHOL    60.000] LLG       0.89   -0.1467   0.8732   -0.3943   2.3478   -0.3302   1.9662     0.0167    0.8854    0.8856
 Note - ip(B) currents include safety factor multiplier (1.15).
 THEVENIN IMPEDANCE, X/R  (PU)     Z+:0.084267+j0.593647, 7.04482  Z-:0.084267+j0.593647, 7.04482  Z0:0.266542+j1.540969, 5.78133

 ---------------------------------------------------------------------------------------------------------------
     VOLTAGE FACTOR C= 1.10,   NOMINAL FREQUENCY=50.0 Hz,   BREAKING CURRENT at TIME= 0.100 seconds
                                       <-SCMVA-> <-Sym I''k rms--> <-----ip(B)------> <-----ip(C)------> <DC Ib(C)> <Sym Ib-> <Asym Ib>
                                                    RE(I)    IM(I)     RE(I)    IM(I)     RE(I)    IM(I)        /I/       /I/       /I/
 X------------ BUS ------------X          PU            PU                 PU                 PU                PU        PU        PU
    203     [TAVEIRO     60.000] LLG       0.51   -0.1459   0.4858   -0.3434   1.1434   -0.2934   0.9767     0.0002    0.5073    0.5073
 Note - ip(B) currents include safety factor multiplier (1.15).
 THEVENIN IMPEDANCE, X/R  (PU)     Z+:0.261979+j0.958505, 3.65871  Z-:0.261979+j0.958505, 3.65871  Z0:0.804669+j2.635901, 3.27576

 ---------------------------------------------------------------------------------------------------------------
     VOLTAGE FACTOR C= 1.10,   NOMINAL FREQUENCY=50.0 Hz,   BREAKING CURRENT at TIME= 0.100 seconds
                                       <-SCMVA-> <-Sym I''k rms--> <-----ip(B)------> <-----ip(C)------> <DC Ib(C)> <Sym Ib-> <Asym Ib>
                                                    RE(I)    IM(I)     RE(I)    IM(I)     RE(I)    IM(I)        /I/       /I/       /I/
 X------------ BUS ------------X          PU            PU                 PU                 PU                PU        PU        PU
    206     [PEREIROS    220.00] LLG       1.29   -0.0338   1.2922   -0.0932   3.5627   -0.0880   3.3621     1.2694    1.2927    1.8117
 THEVENIN IMPEDANCE, X/R  (PU)     Z+:0.006956+j0.429980, 61.81504  Z-:0.006956+j0.429980, 61.81504  Z0:0.029904+j1.061017, 35.48050

 ---------------------------------------------------------------------------------------------------------------
     VOLTAGE FACTOR C= 1.10,   NOMINAL FREQUENCY=50.0 Hz,   BREAKING CURRENT at TIME= 0.100 seconds
                                       <-SCMVA-> <-Sym I''k rms--> <-----ip(B)------> <-----ip(C)------> <DC Ib(C)> <Sym Ib-> <Asym Ib>
                                                    RE(I)    IM(I)     RE(I)    IM(I)     RE(I)    IM(I)        /I/       /I/       /I/
 X------------ BUS ------------X          PU            PU                 PU                 PU                PU        PU        PU
    216     [RIO MAIOR 2 220.00] LLG       1.35   -0.0214   1.3476   -0.0596   3.7579   -0.0561   3.5348     1.5623    1.3477    2.0633
 THEVENIN IMPEDANCE, X/R  (PU)     Z+:0.003640+j0.421098, 115.70068  Z-:0.003640+j0.421098, 115.70068  Z0:0.017593+j1.013562, 57.61007

 ---------------------------------------------------------------------------------------------------------------
     VOLTAGE FACTOR C= 1.10,   NOMINAL FREQUENCY=50.0 Hz,   BREAKING CURRENT at TIME= 0.100 seconds
                                       <-SCMVA-> <-Sym I''k rms--> <-----ip(B)------> <-----ip(C)------> <DC Ib(C)> <Sym Ib-> <Asym Ib>
                                                    RE(I)    IM(I)     RE(I)    IM(I)     RE(I)    IM(I)        /I/       /I/       /I/
 X------------ BUS ------------X          PU            PU                 PU                 PU                PU        PU        PU
    276     [PARAIMO     220.00] LLG       1.33   -0.0242   1.3260   -0.0668   3.6675   -0.0631   3.4615     1.4650    1.3262    1.9761
 THEVENIN IMPEDANCE, X/R  (PU)     Z+:0.006471+j0.433733, 67.02546  Z-:0.006471+j0.433733, 67.02546  Z0:0.019423+j1.027060, 52.87851

 ---------------------------------------------------------------------------------------------------------------
     VOLTAGE FACTOR C= 1.10,   NOMINAL FREQUENCY=50.0 Hz,   BREAKING CURRENT at TIME= 0.100 seconds
                                       <-SCMVA-> <-Sym I''k rms--> <-----ip(B)------> <-----ip(C)------> <DC Ib(C)> <Sym Ib-> <Asym Ib>
                                                    RE(I)    IM(I)     RE(I)    IM(I)     RE(I)    IM(I)        /I/       /I/       /I/
 X------------ BUS ------------X          PU            PU                 PU                 PU                PU        PU        PU
    301     [GALA        60.000] LLG       0.47   -0.1468   0.4440   -0.3794   1.1472   -0.3198   0.9670     0.0029    0.4677    0.4677
 Note - ip(B) currents include safety factor multiplier (1.15).
 THEVENIN IMPEDANCE, X/R  (PU)     Z+:0.101478+j0.600421, 5.91675  Z-:0.101478+j0.600421, 5.91675  Z0:1.056996+j3.049637, 2.88519

 ---------------------------------------------------------------------------------------------------------------
     VOLTAGE FACTOR C= 1.10,   NOMINAL FREQUENCY=50.0 Hz,   BREAKING CURRENT at TIME= 0.100 seconds
                                       <-SCMVA-> <-Sym I''k rms--> <-----ip(B)------> <-----ip(C)------> <DC Ib(C)> <Sym Ib-> <Asym Ib>
                                                    RE(I)    IM(I)     RE(I)    IM(I)     RE(I)    IM(I)        /I/       /I/       /I/
 X------------ BUS ------------X          PU            PU                 PU                 PU                PU        PU        PU
    302     [CORRENTE    60.000] LLG       0.89   -0.1467   0.8732   -0.3943   2.3478   -0.3302   1.9662     0.0167    0.8854    0.8856
 Note - ip(B) currents include safety factor multiplier (1.15).
 THEVENIN IMPEDANCE, X/R  (PU)     Z+:0.084267+j0.593647, 7.04482  Z-:0.084267+j0.593647, 7.04482  Z0:0.266542+j1.540969, 5.78133

 ---------------------------------------------------------------------------------------------------------------
     VOLTAGE FACTOR C= 1.10,   NOMINAL FREQUENCY=50.0 Hz,   BREAKING CURRENT at TIME= 0.100 seconds
                                       <-SCMVA-> <-Sym I''k rms--> <-----ip(B)------> <-----ip(C)------> <DC Ib(C)> <Sym Ib-> <Asym Ib>
                                                    RE(I)    IM(I)     RE(I)    IM(I)     RE(I)    IM(I)        /I/       /I/       /I/
 X------------ BUS ------------X          PU            PU                 PU                 PU                PU        PU        PU
    303     [ALTO S.JOÃO 60.000] LLG       0.82   -0.1514   0.8020   -0.3973   2.1050   -0.3341   1.7702     0.0081    0.8162    0.8162
 Note - ip(B) currents include safety factor multiplier (1.15).
 THEVENIN IMPEDANCE, X/R  (PU)     Z+:0.104384+j0.638364, 6.11556  Z-:0.104384+j0.638364, 6.11556  Z0:0.322785+j1.667366, 5.16556

 ---------------------------------------------------------------------------------------------------------------
     VOLTAGE FACTOR C= 1.10,   NOMINAL FREQUENCY=50.0 Hz,   BREAKING CURRENT at TIME= 0.100 seconds
                                       <-SCMVA-> <-Sym I''k rms--> <-----ip(B)------> <-----ip(C)------> <DC Ib(C)> <Sym Ib-> <Asym Ib>
                                                    RE(I)    IM(I)     RE(I)    IM(I)     RE(I)    IM(I)        /I/       /I/       /I/
 X------------ BUS ------------X          PU            PU                 PU                 PU                PU        PU        PU
    401     [LOURIÇAL    60.000] LLG       0.29   -0.1078   0.2688   -0.2669   0.6654   -0.2269   0.5658     0.0005    0.2896    0.2896
 Note - ip(B) currents include safety factor multiplier (1.15).
 THEVENIN IMPEDANCE, X/R  (PU)     Z+:0.151641+j0.715379, 4.71759  Z-:0.151641+j0.715379, 4.71759  Z0:2.045189+j4.930532, 2.41080

 ---------------------------------------------------------------------------------------------------------------
     VOLTAGE FACTOR C= 1.10,   NOMINAL FREQUENCY=50.0 Hz,   BREAKING CURRENT at TIME= 0.100 seconds
                                       <-SCMVA-> <-Sym I''k rms--> <-----ip(B)------> <-----ip(C)------> <DC Ib(C)> <Sym Ib-> <Asym Ib>
                                                    RE(I)    IM(I)     RE(I)    IM(I)     RE(I)    IM(I)        /I/       /I/       /I/
 X------------ BUS ------------X          PU            PU                 PU                 PU                PU        PU        PU
    402     [RELVINHA    60.000] LLG       0.85   -0.1600   0.8306   -0.4205   2.1832   -0.3524   1.8295     0.0073    0.8459    0.8459
 Note - ip(B) currents include safety factor multiplier (1.15).
 THEVENIN IMPEDANCE, X/R  (PU)     Z+:0.098792+j0.612039, 6.19520  Z-:0.098792+j0.612039, 6.19520  Z0:0.319582+j1.609440, 5.03609

 ---------------------------------------------------------------------------------------------------------------
     VOLTAGE FACTOR C= 1.10,   NOMINAL FREQUENCY=50.0 Hz,   BREAKING CURRENT at TIME= 0.100 seconds
                                       <-SCMVA-> <-Sym I''k rms--> <-----ip(B)------> <-----ip(C)------> <DC Ib(C)> <Sym Ib-> <Asym Ib>
                                                    RE(I)    IM(I)     RE(I)    IM(I)     RE(I)    IM(I)        /I/       /I/       /I/
 X------------ BUS ------------X          PU            PU                 PU                 PU                PU        PU        PU
    416     [RIO MAIOR   400.00] LLG       1.46   -0.0192   1.4556   -0.0540   4.0852   -0.0504   3.8130     1.7670    1.4557    2.2894
 THEVENIN IMPEDANCE, X/R  (PU)     Z+:0.001513+j0.383379, 253.33325  Z-:0.001513+j0.383379, 253.33325  Z0:0.014228+j0.941681, 66.18379

 ---------------------------------------------------------------------------------------------------------------
     VOLTAGE FACTOR C= 1.10,   NOMINAL FREQUENCY=50.0 Hz,   BREAKING CURRENT at TIME= 0.100 seconds
                                       <-SCMVA-> <-Sym I''k rms--> <-----ip(B)------> <-----ip(C)------> <DC Ib(C)> <Sym Ib-> <Asym Ib>
                                                    RE(I)    IM(I)     RE(I)    IM(I)     RE(I)    IM(I)        /I/       /I/       /I/
 X------------ BUS ------------X          PU            PU                 PU                 PU                PU        PU        PU
    448     [LAVOS       400.00] LLG       1.61   -0.0066   1.6076   -0.0186   4.5470   -0.0173   4.2232     2.2735    1.6076    2.7845
 Note - ip(B) currents include safety factor multiplier (1.15).
 THEVENIN IMPEDANCE, X/R  (PU)     Z+:-0.00000+j0.366667, 9999.999  Z-:-0.00000+j0.366667, 9999.999  Z0:0.004206+j0.843009, 200.43820

 ---------------------------------------------------------------------------------------------------------------
     VOLTAGE FACTOR C= 1.10,   NOMINAL FREQUENCY=50.0 Hz,   BREAKING CURRENT at TIME= 0.100 seconds
                                       <-SCMVA-> <-Sym I''k rms--> <-----ip(B)------> <-----ip(C)------> <DC Ib(C)> <Sym Ib-> <Asym Ib>
                                                    RE(I)    IM(I)     RE(I)    IM(I)     RE(I)    IM(I)        /I/       /I/       /I/
 X------------ BUS ------------X          PU            PU                 PU                 PU                PU        PU        PU
    476     [PARAIMO     400.00] LLG       1.60   -0.0181   1.5953   -0.0511   4.5122   -0.0472   4.1692     1.9884    1.5954    2.5493
 Note - ip(B) currents include safety factor multiplier (1.15).
 THEVENIN IMPEDANCE, X/R  (PU)     Z+:0.001169+j0.367891, 314.75888  Z-:0.001169+j0.367891, 314.75888  Z0:0.011120+j0.850201, 76.45683

 ---------------------------------------------------------------------------------------------------------------
     VOLTAGE FACTOR C= 1.10,   NOMINAL FREQUENCY=50.0 Hz,   BREAKING CURRENT at TIME= 0.100 seconds
                                       <-SCMVA-> <-Sym I''k rms--> <-----ip(B)------> <-----ip(C)------> <DC Ib(C)> <Sym Ib-> <Asym Ib>
                                                    RE(I)    IM(I)     RE(I)    IM(I)     RE(I)    IM(I)        /I/       /I/       /I/
 X------------ BUS ------------X          PU            PU                 PU                 PU                PU        PU        PU
    501     [SOURE       60.000] LLG       0.29   -0.1078   0.2688   -0.2669   0.6654   -0.2269   0.5658     0.0005    0.2896    0.2896
 Note - ip(B) currents include safety factor multiplier (1.15).
 THEVENIN IMPEDANCE, X/R  (PU)     Z+:0.151641+j0.715379, 4.71759  Z-:0.151641+j0.715379, 4.71759  Z0:2.045189+j4.930532, 2.41080

 ---------------------------------------------------------------------------------------------------------------
     VOLTAGE FACTOR C= 1.10,   NOMINAL FREQUENCY=50.0 Hz,   BREAKING CURRENT at TIME= 0.100 seconds
                                       <-SCMVA-> <-Sym I''k rms--> <-----ip(B)------> <-----ip(C)------> <DC Ib(C)> <Sym Ib-> <Asym Ib>
                                                    RE(I)    IM(I)     RE(I)    IM(I)     RE(I)    IM(I)        /I/       /I/       /I/
 X------------ BUS ------------X          PU            PU                 PU                 PU                PU        PU        PU
    502     [CONDEIXA    60.000] LLG       0.67   -0.1553   0.6524   -0.3867   1.6247   -0.3278   1.3773     0.0014    0.6706    0.6706
 Note - ip(B) currents include safety factor multiplier (1.15).
 THEVENIN IMPEDANCE, X/R  (PU)     Z+:0.161979+j0.758505, 4.68274  Z-:0.161979+j0.758505, 4.68274  Z0:0.488745+j2.014271, 4.12132

 ---------------------------------------------------------------------------------------------------------------
     VOLTAGE FACTOR C= 1.10,   NOMINAL FREQUENCY=50.0 Hz,   BREAKING CURRENT at TIME= 0.100 seconds
                                       <-SCMVA-> <-Sym I''k rms--> <-----ip(B)------> <-----ip(C)------> <DC Ib(C)> <Sym Ib-> <Asym Ib>
                                                    RE(I)    IM(I)     RE(I)    IM(I)     RE(I)    IM(I)        /I/       /I/       /I/
 X------------ BUS ------------X          PU            PU                 PU                 PU                PU        PU        PU
    601     [VILA ROBIM  60.000] LLG       0.67   -0.1614   0.6508   -0.4181   1.6855   -0.3516   1.4177     0.0043    0.6706    0.6706
 Note - ip(B) currents include safety factor multiplier (1.15).
 THEVENIN IMPEDANCE, X/R  (PU)     Z+:0.104924+j0.614797, 5.85943  Z-:0.104924+j0.614797, 5.85943  Z0:0.539923+j2.080851, 3.85398

 ---------------------------------------------------------------------------------------------------------------
     VOLTAGE FACTOR C= 1.10,   NOMINAL FREQUENCY=50.0 Hz,   BREAKING CURRENT at TIME= 0.100 seconds
                                       <-SCMVA-> <-Sym I''k rms--> <-----ip(B)------> <-----ip(C)------> <DC Ib(C)> <Sym Ib-> <Asym Ib>
                                                    RE(I)    IM(I)     RE(I)    IM(I)     RE(I)    IM(I)        /I/       /I/       /I/
 X------------ BUS ------------X          PU            PU                 PU                 PU                PU        PU        PU
    701     [SÃO JULIÃO  60.000] LLG       0.45   -0.1413   0.4324   -0.3304   1.0111   -0.2819   0.8627     0.0001    0.4549    0.4549
 Note - ip(B) currents include safety factor multiplier (1.15).
 THEVENIN IMPEDANCE, X/R  (PU)     Z+:0.254924+j0.914797, 3.58850  Z-:0.254924+j0.914797, 3.58850  Z0:0.999103+j2.990535, 2.99322

 ---------------------------------------------------------------------------------------------------------------
     VOLTAGE FACTOR C= 1.10,   NOMINAL FREQUENCY=50.0 Hz,   BREAKING CURRENT at TIME= 0.100 seconds
                                       <-SCMVA-> <-Sym I''k rms--> <-----ip(B)------> <-----ip(C)------> <DC Ib(C)> <Sym Ib-> <Asym Ib>
                                                    RE(I)    IM(I)     RE(I)    IM(I)     RE(I)    IM(I)        /I/       /I/       /I/
 X------------ BUS ------------X          PU            PU                 PU                 PU                PU        PU        PU
    702     [LOUSÃ       60.000] LLG       0.67   -0.1560   0.6481   -0.3884   1.6135   -0.3293   1.3680     0.0014    0.6666    0.6666
 Note - ip(B) currents include safety factor multiplier (1.15).
 THEVENIN IMPEDANCE, X/R  (PU)     Z+:0.161979+j0.758505, 4.68274  Z-:0.161979+j0.758505, 4.68274  Z0:0.498295+j2.027241, 4.06836

 ---------------------------------------------------------------------------------------------------------------
     VOLTAGE FACTOR C= 1.10,   NOMINAL FREQUENCY=50.0 Hz,   BREAKING CURRENT at TIME= 0.100 seconds
                                       <-SCMVA-> <-Sym I''k rms--> <-----ip(B)------> <-----ip(C)------> <DC Ib(C)> <Sym Ib-> <Asym Ib>
                                                    RE(I)    IM(I)     RE(I)    IM(I)     RE(I)    IM(I)        /I/       /I/       /I/
 X------------ BUS ------------X          PU            PU                 PU                 PU                PU        PU        PU
    801     [MIRANDA CORV60.000] LLG       0.45   -0.1386   0.4315   -0.3202   0.9970   -0.2742   0.8537     0.0001    0.4532    0.4532
 Note - ip(B) currents include safety factor multiplier (1.15).
 THEVENIN IMPEDANCE, X/R  (PU)     Z+:0.311979+j1.058505, 3.39287  Z-:0.311979+j1.058505, 3.39287  Z0:0.957166+j2.936778, 3.06820

 ---------------------------------------------------------------------------------------------------------------
     VOLTAGE FACTOR C= 1.10,   NOMINAL FREQUENCY=50.0 Hz,   BREAKING CURRENT at TIME= 0.100 seconds
                                       <-SCMVA-> <-Sym I''k rms--> <-----ip(B)------> <-----ip(C)------> <DC Ib(C)> <Sym Ib-> <Asym Ib>
                                                    RE(I)    IM(I)     RE(I)    IM(I)     RE(I)    IM(I)        /I/       /I/       /I/
 X------------ BUS ------------X          PU            PU                 PU                 PU                PU        PU        PU
    901     [RIO MAIOR 6060.000] LLG       1.28   -0.0211   1.2810   -0.0598   3.6232   -0.0556   3.3696     1.4091    1.2812    1.9045
 Note - ip(B) currents include safety factor multiplier (1.15).
 THEVENIN IMPEDANCE, X/R  (PU)     Z+:0.004681+j0.459968, 98.25514  Z-:0.004681+j0.459968, 98.25514  Z0:0.018895+j1.057718, 55.97725

 ---------------------------------------------------------------------------------------------------------------
     VOLTAGE FACTOR C= 1.10,   NOMINAL FREQUENCY=50.0 Hz,   BREAKING CURRENT at TIME= 0.100 seconds
                                       <-SCMVA-> <-Sym I''k rms--> <-----ip(B)------> <-----ip(C)------> <DC Ib(C)> <Sym Ib-> <Asym Ib>
                                                    RE(I)    IM(I)     RE(I)    IM(I)     RE(I)    IM(I)        /I/       /I/       /I/
 X------------ BUS ------------X          PU            PU                 PU                 PU                PU        PU        PU
    902     [PC PENACOVA 60.000] LLG       0.77   -0.1628   0.7571   -0.4172   1.9398   -0.3511   1.6324     0.0032    0.7744    0.7744
 Note - ip(B) currents include safety factor multiplier (1.15).
 THEVENIN IMPEDANCE, X/R  (PU)     Z+:0.122601+j0.661927, 5.39905  Z-:0.122601+j0.661927, 5.39905  Z0:0.386713+j1.752127, 4.53083

 ---------------------------------------------------------------------------------------------------------------
     VOLTAGE FACTOR C= 1.10,   NOMINAL FREQUENCY=50.0 Hz,   BREAKING CURRENT at TIME= 0.100 seconds
                                       <-SCMVA-> <-Sym I''k rms--> <-----ip(B)------> <-----ip(C)------> <DC Ib(C)> <Sym Ib-> <Asym Ib>
                                                    RE(I)    IM(I)     RE(I)    IM(I)     RE(I)    IM(I)        /I/       /I/       /I/
 X------------ BUS ------------X          PU            PU                 PU                 PU                PU        PU        PU
   1001     [R MAIOR     60.000] LLG       0.79   -0.1530   0.7750   -0.4006   2.0293   -0.3362   1.7030     0.0054    0.7900    0.7900
 Note - ip(B) currents include safety factor multiplier (1.15).
 THEVENIN IMPEDANCE, X/R  (PU)     Z+:0.110564+j0.671733, 6.07553  Z-:0.110564+j0.671733, 6.07553  Z0:0.349194+j1.713271, 4.90635

 ---------------------------------------------------------------------------------------------------------------
     VOLTAGE FACTOR C= 1.10,   NOMINAL FREQUENCY=50.0 Hz,   BREAKING CURRENT at TIME= 0.100 seconds
                                       <-SCMVA-> <-Sym I''k rms--> <-----ip(B)------> <-----ip(C)------> <DC Ib(C)> <Sym Ib-> <Asym Ib>
                                                    RE(I)    IM(I)     RE(I)    IM(I)     RE(I)    IM(I)        /I/       /I/       /I/
 X------------ BUS ------------X          PU            PU                 PU                 PU                PU        PU        PU
   1002     [AGUIEIRA    60.000] LLG       0.68   -0.1698   0.6553   -0.4178   1.6125   -0.3530   1.3627     0.0007    0.6770    0.6770
 Note - ip(B) currents include safety factor multiplier (1.15).
 THEVENIN IMPEDANCE, X/R  (PU)     Z+:0.165813+j0.738944, 4.45650  Z-:0.165813+j0.738944, 4.45650  Z0:0.528376+j1.989960, 3.76618

 ---------------------------------------------------------------------------------------------------------------
     VOLTAGE FACTOR C= 1.10,   NOMINAL FREQUENCY=50.0 Hz,   BREAKING CURRENT at TIME= 0.100 seconds
                                       <-SCMVA-> <-Sym I''k rms--> <-----ip(B)------> <-----ip(C)------> <DC Ib(C)> <Sym Ib-> <Asym Ib>
                                                    RE(I)    IM(I)     RE(I)    IM(I)     RE(I)    IM(I)        /I/       /I/       /I/
 X------------ BUS ------------X          PU            PU                 PU                 PU                PU        PU        PU
   1101     [CADAVAL     60.000] LLG       0.74   -0.1564   0.7222   -0.4020   1.8564   -0.3383   1.5622     0.0030    0.7389    0.7389
 Note - ip(B) currents include safety factor multiplier (1.15).
 THEVENIN IMPEDANCE, X/R  (PU)     Z+:0.128211+j0.707027, 5.51457  Z-:0.128211+j0.707027, 5.51457  Z0:0.408515+j1.828972, 4.47712

 ---------------------------------------------------------------------------------------------------------------
     VOLTAGE FACTOR C= 1.10,   NOMINAL FREQUENCY=50.0 Hz,   BREAKING CURRENT at TIME= 0.100 seconds
                                       <-SCMVA-> <-Sym I''k rms--> <-----ip(B)------> <-----ip(C)------> <DC Ib(C)> <Sym Ib-> <Asym Ib>
                                                    RE(I)    IM(I)     RE(I)    IM(I)     RE(I)    IM(I)        /I/       /I/       /I/
 X------------ BUS ------------X          PU            PU                 PU                 PU                PU        PU        PU
   1201     [SANCHEIRA   60.000] LLG       0.97   -0.1275   0.9616   -0.3593   2.7096   -0.2986   2.2518     0.0501    0.9700    0.9713
 Note - ip(B) currents include safety factor multiplier (1.15).
 THEVENIN IMPEDANCE, X/R  (PU)     Z+:0.057623+j0.565851, 9.81995  Z-:0.057623+j0.565851, 9.81995  Z0:0.194753+j1.403272, 7.20539

 ---------------------------------------------------------------------------------------------------------------
     VOLTAGE FACTOR C= 1.10,   NOMINAL FREQUENCY=50.0 Hz,   BREAKING CURRENT at TIME= 0.100 seconds
                                       <-SCMVA-> <-Sym I''k rms--> <-----ip(B)------> <-----ip(C)------> <DC Ib(C)> <Sym Ib-> <Asym Ib>
                                                    RE(I)    IM(I)     RE(I)    IM(I)     RE(I)    IM(I)        /I/       /I/       /I/
 X------------ BUS ------------X          PU            PU                 PU                 PU                PU        PU        PU
   1202     [MORTAGUA    60.000] LLG       0.74   -0.1749   0.7203   -0.4384   1.8056   -0.3691   1.5204     0.0013    0.7413    0.7413
 Note - ip(B) currents include safety factor multiplier (1.15).
 THEVENIN IMPEDANCE, X/R  (PU)     Z+:0.141615+j0.689555, 4.86922  Z-:0.141615+j0.689555, 4.86922  Z0:0.454356+j1.818324, 4.00198

 ---------------------------------------------------------------------------------------------------------------
     VOLTAGE FACTOR C= 1.10,   NOMINAL FREQUENCY=50.0 Hz,   BREAKING CURRENT at TIME= 0.100 seconds
                                       <-SCMVA-> <-Sym I''k rms--> <-----ip(B)------> <-----ip(C)------> <DC Ib(C)> <Sym Ib-> <Asym Ib>
                                                    RE(I)    IM(I)     RE(I)    IM(I)     RE(I)    IM(I)        /I/       /I/       /I/
 X------------ BUS ------------X          PU            PU                 PU                 PU                PU        PU        PU
   1301     [CALDAS      60.000] LLG       0.84   -0.1475   0.8312   -0.3945   2.2225   -0.3301   1.8596     0.0105    0.8442    0.8443
 Note - ip(B) currents include safety factor multiplier (1.15).
 THEVENIN IMPEDANCE, X/R  (PU)     Z+:0.092917+j0.636439, 6.84957  Z-:0.092917+j0.636439, 6.84957  Z0:0.295126+j1.606209, 5.44246

 ---------------------------------------------------------------------------------------------------------------